!-Generator IDFEditor 1.51
!-Option SortedOrder

!-NOTE: All comments with '!-' are ignored by the IDFEditor and are generated automatically.
!-      Use '!' comments if they need to be retained when using the IDFEditor.


!-   ===========  ALL OBJECTS IN CLASS: VERSION ===========

Version,
    9.3;                     !- Version Identifier


!-   ===========  ALL OBJECTS IN CLASS: SIMULATIONCONTROL ===========

SimulationControl,
    Yes,                     !- Do Zone Sizing Calculation
    No,                      !- Do System Sizing Calculation
    No,                      !- Do Plant Sizing Calculation
    No,                      !- Run Simulation for Sizing Periods
    Yes;                     !- Run Simulation for Weather File Run Periods


!-   ===========  ALL OBJECTS IN CLASS: BUILDING ===========

Building,
    Blk3,                    !- Name
    351.6,                   !- North Axis {deg}
    Urban,                   !- Terrain
    0.04,                    !- Loads Convergence Tolerance Value {W}
    0.4,                     !- Temperature Convergence Tolerance Value {deltaC}
    FullExterior,            !- Solar Distribution
    25,                      !- Maximum Number of Warmup Days
    ;                        !- Minimum Number of Warmup Days


!-   ===========  ALL OBJECTS IN CLASS: SHADOWCALCULATION ===========

ShadowCalculation,
    PolygonClipping,         !- Shading Calculation Method
    Periodic,                !- Shading Calculation Update Frequency Method
    20;                      !- Shading Calculation Update Frequency


!-   ===========  ALL OBJECTS IN CLASS: SURFACECONVECTIONALGORITHM:INSIDE ===========

SurfaceConvectionAlgorithm:Inside,
    TARP;                    !- Algorithm


!-   ===========  ALL OBJECTS IN CLASS: SURFACECONVECTIONALGORITHM:OUTSIDE ===========

SurfaceConvectionAlgorithm:Outside,
    DOE-2;                   !- Algorithm


!-   ===========  ALL OBJECTS IN CLASS: HEATBALANCEALGORITHM ===========

HeatBalanceAlgorithm,
    ConductionTransferFunction,  !- Algorithm
    200,                     !- Surface Temperature Upper Limit {C}
    0.1,                     !- Minimum Surface Convection Heat Transfer Coefficient Value {W/m2-K}
    1000;                    !- Maximum Surface Convection Heat Transfer Coefficient Value {W/m2-K}


!-   ===========  ALL OBJECTS IN CLASS: TIMESTEP ===========

Timestep,
    30;                      !- Number of Timesteps per Hour


!-   ===========  ALL OBJECTS IN CLASS: SITE:LOCATION ===========

Site:Location,
    Singapore,               !- Name
    1.3,                     !- Latitude {deg}
    103.8,                   !- Longitude {deg}
    8.0,                     !- Time Zone {hr}
    6;                       !- Elevation {m}


!-   ===========  ALL OBJECTS IN CLASS: RUNPERIOD ===========

RunPeriod,
    June2015,                !- Name
    6,                       !- Begin Month
    1,                       !- Begin Day of Month
    2015,                    !- Begin Year
    6,                       !- End Month
    30,                      !- End Day of Month
    2015,                    !- End Year
    Monday,                  !- Day of Week for Start Day
    No,                      !- Use Weather File Holidays and Special Days
    No,                      !- Use Weather File Daylight Saving Period
    No,                      !- Apply Weekend Holiday Rule
    Yes,                     !- Use Weather File Rain Indicators
    No;                      !- Use Weather File Snow Indicators


!-   ===========  ALL OBJECTS IN CLASS: SITE:GROUNDTEMPERATURE:BUILDINGSURFACE ===========

Site:GroundTemperature:BuildingSurface,
    18,                      !- January Ground Temperature {C}
    18,                      !- February Ground Temperature {C}
    18,                      !- March Ground Temperature {C}
    18,                      !- April Ground Temperature {C}
    24,                      !- May Ground Temperature {C}
    24.3,                    !- June Ground Temperature {C}
    24,                      !- July Ground Temperature {C}
    18,                      !- August Ground Temperature {C}
    18,                      !- September Ground Temperature {C}
    18,                      !- October Ground Temperature {C}
    18,                      !- November Ground Temperature {C}
    18;                      !- December Ground Temperature {C}


!-   ===========  ALL OBJECTS IN CLASS: SCHEDULETYPELIMITS ===========

ScheduleTypeLimits,
    Any Number;              !- Name

ScheduleTypeLimits,
    Fraction,                !- Name
    0.0,                     !- Lower Limit Value
    1.0,                     !- Upper Limit Value
    CONTINUOUS;              !- Numeric Type

ScheduleTypeLimits,
    Temperature,             !- Name
    -60,                     !- Lower Limit Value
    200,                     !- Upper Limit Value
    CONTINUOUS;              !- Numeric Type

ScheduleTypeLimits,
    On/Off,                  !- Name
    0,                       !- Lower Limit Value
    1,                       !- Upper Limit Value
    DISCRETE;                !- Numeric Type

ScheduleTypeLimits,
    Control Type,            !- Name
    0,                       !- Lower Limit Value
    4,                       !- Upper Limit Value
    DISCRETE;                !- Numeric Type

ScheduleTypeLimits,
    Humidity,                !- Name
    10,                      !- Lower Limit Value
    90,                      !- Upper Limit Value
    CONTINUOUS;              !- Numeric Type

ScheduleTypeLimits,
    Number,                  !- Name
    0,                       !- Lower Limit Value
    1000,                    !- Upper Limit Value
    Continuous;              !- Numeric Type

ScheduleTypeLimits,
    Power,                   !- Name
    0,                       !- Lower Limit Value
    500,                     !- Upper Limit Value
    Continuous,              !- Numeric Type
    Power;                   !- Unit Type


!-   ===========  ALL OBJECTS IN CLASS: SCHEDULE:COMPACT ===========

Schedule:Compact,
    Always On,               !- Name
    On/Off,                  !- Schedule Type Limits Name
    Through: 12/31,          !- Field 1
    For: AllDays,            !- Field 2
    Until: 24:00,            !- Field 3
    1.0;                     !- Field 4

Schedule:Compact,
    Always Off,              !- Name
    Any Number,              !- Schedule Type Limits Name
    Through: 12/31,          !- Field 1
    For: AllDays,            !- Field 2
    Until: 24:00,            !- Field 3
    0.0;                     !- Field 4

Schedule:Compact,
    Infiltration Schedule,   !- Name
    Fraction,                !- Schedule Type Limits Name
    Through: 12/31,          !- Field 1
    For: AllDays,            !- Field 2
    Until: 24:00,            !- Field 3
    1;                       !- Field 4

Schedule:Compact,
    Fan Schedule,            !- Name
    Fraction,                !- Schedule Type Limits Name
    Through: 12/31,          !- Field 1
    For: Weekdays,           !- Field 2
    Until: 08:00,            !- Field 3
    0,                       !- Field 4
    Until: 18:30,            !- Field 5
    1,                       !- Field 6
    Until: 20:00,            !- Field 7
    0,                       !- Field 8
    Until: 22:00,            !- Field 9
    1,                       !- Field 10
    Until: 24:00,            !- Field 11
    0,                       !- Field 12
    For: Weekends,           !- Field 13
    Until: 08:00,            !- Field 14
    0,                       !- Field 15
    Until: 18:30,            !- Field 16
    1,                       !- Field 17
    Until: 20:00,            !- Field 18
    0,                       !- Field 19
    Until: 22:00,            !- Field 20
    1,                       !- Field 21
    Until: 24:00,            !- Field 22
    0;                       !- Field 23

Schedule:Compact,
    NAC Lighting Schedule,   !- Name
    Fraction,                !- Schedule Type Limits Name
    Through: 12/31,          !- Field 1
    For: Weekdays,           !- Field 2
    Until: 06:00,            !- Field 3
    0.0,                     !- Field 4
    Until: 07:00,            !- Field 5
    1,                       !- Field 6
    Until: 17:30,            !- Field 7
    0,                       !- Field 8
    Until: 23:30,            !- Field 9
    1,                       !- Field 10
    Until: 24:00,            !- Field 11
    0,                       !- Field 12
    For: Weekends,           !- Field 13
    Until: 06:50,            !- Field 14
    0,                       !- Field 15
    Until: 07:00,            !- Field 16
    1,                       !- Field 17
    Until: 17:30,            !- Field 18
    0,                       !- Field 19
    Until: 23:30,            !- Field 20
    1,                       !- Field 21
    Until: 24:00,            !- Field 22
    0;                       !- Field 23

Schedule:Compact,
    Cooling Setpoint Schedule,  !- Name
    Temperature,             !- Schedule Type Limits Name
    Through: 12/31,          !- Field 1
    For: Weekdays,           !- Field 2
    Until: 06:00,            !- Field 3
    25,                      !- Field 4
    Until: 23:30,            !- Field 5
    100,                     !- Field 6
    Until: 24:00,            !- Field 7
    25,                      !- Field 8
    For: Weekends,           !- Field 9
    Until: 06:00,            !- Field 10
    25,                      !- Field 11
    Until: 23:30,            !- Field 12
    100,                     !- Field 13
    Until: 24:00,            !- Field 14
    25;                      !- Field 15

Schedule:Compact,
    Kettle Schedule,         !- Name
    Fraction,                !- Schedule Type Limits Name
    Through: 12/31,          !- Field 1
    For: Weekdays,           !- Field 2
    Until: 06:54,            !- Field 3
    0,                       !- Field 4
    Until: 07:04,            !- Field 5
    1,                       !- Field 6
    Until: 24:00,            !- Field 7
    0,                       !- Field 8
    For: Weekends,           !- Field 9
    Until: 06:50,            !- Field 10
    0,                       !- Field 11
    Until: 06:54,            !- Field 12
    1,                       !- Field 13
    Until: 24:00,            !- Field 14
    0;                       !- Field 15

Schedule:Compact,
    Electric Iron Schedule,  !- Name
    Fraction,                !- Schedule Type Limits Name
    Through: 12/31,          !- Field 1
    For: AllDays,            !- Field 2
    Until: 22:10,            !- Field 3
    0,                       !- Field 4
    Until: 23:00,            !- Field 5
    1,                       !- Field 6
    Until: 24:00,            !- Field 7
    0;                       !- Field 8

Schedule:Compact,
    Washing Machine Schedule,!- Name
    Fraction,                !- Schedule Type Limits Name
    Through: 12/31,          !- Field 1
    For: AllDays,            !- Field 2
    Until: 08:00,            !- Field 3
    0,                       !- Field 4
    Until: 08:40,            !- Field 5
    1,                       !- Field 6
    Until: 24:00,            !- Field 7
    0;                       !- Field 8

Schedule:Compact,
    Refrigerator Schedule,   !- Name
    Fraction,                !- Schedule Type Limits Name
    Through: 12/31,          !- Field 1
    For: AllDays,            !- Field 2
    Until: 24:00,            !- Field 3
    1;                       !- Field 4

Schedule:Compact,
    TV schedule,             !- Name
    Fraction,                !- Schedule Type Limits Name
    Through: 12/31,          !- Field 1
    For: Weekdays,           !- Field 2
    Until: 08:00,            !- Field 3
    0,                       !- Field 4
    Until: 17:30,            !- Field 5
    1,                       !- Field 6
    Until: 24:00,            !- Field 7
    0,                       !- Field 8
    For: Weekends,           !- Field 9
    Until: 08:00,            !- Field 10
    0,                       !- Field 11
    Until: 17:30,            !- Field 12
    1,                       !- Field 13
    Until: 20:00,            !- Field 14
    0,                       !- Field 15
    Until: 22:00,            !- Field 16
    1,                       !- Field 17
    Until: 24:00,            !- Field 18
    0;                       !- Field 19

Schedule:Compact,
    Computer schedule,       !- Name
    Fraction,                !- Schedule Type Limits Name
    Through: 12/31,          !- Field 1
    For: Weekdays,           !- Field 2
    Until: 20:00,            !- Field 3
    0,                       !- Field 4
    Until: 23:00,            !- Field 5
    1,                       !- Field 6
    Until: 24:00,            !- Field 7
    0,                       !- Field 8
    For: Weekends,           !- Field 9
    Until: 09:00,            !- Field 10
    0,                       !- Field 11
    Until: 23:00,            !- Field 12
    1,                       !- Field 13
    Until: 24:00,            !- Field 14
    0;                       !- Field 15

Schedule:Compact,
    Rice cooker schedule,    !- Name
    Fraction,                !- Schedule Type Limits Name
    Through: 12/31,          !- Field 1
    For: Weekdays,           !- Field 2
    Until: 07:00,            !- Field 3
    0,                       !- Field 4
    Until: 07:30,            !- Field 5
    1,                       !- Field 6
    Until: 18:50,            !- Field 7
    0,                       !- Field 8
    Until: 19:20,            !- Field 9
    1,                       !- Field 10
    Until: 24:00,            !- Field 11
    0,                       !- Field 12
    For: Weekends,           !- Field 13
    Until: 07:30,            !- Field 14
    0,                       !- Field 15
    Until: 08:00,            !- Field 16
    1,                       !- Field 17
    Until: 18:50,            !- Field 18
    0,                       !- Field 19
    Until: 19:20,            !- Field 20
    1,                       !- Field 21
    Until: 24:00,            !- Field 22
    0;                       !- Field 23

Schedule:Compact,
    Sleeping schedule per pax,  !- Name
    Power,                   !- Schedule Type Limits Name
    Through: 12/31,          !- Field 1
    For: Weekdays,           !- Field 2
    Until: 06:00,            !- Field 3
    72,                      !- Field 4
    Until: 23:30,            !- Field 5
    0,                       !- Field 6
    Until: 24:00,            !- Field 7
    72,                      !- Field 8
    For: Weekends,           !- Field 9
    Until: 07:00,            !- Field 10
    72,                      !- Field 11
    Until: 23:30,            !- Field 12
    0,                       !- Field 13
    Until: 24:00,            !- Field 14
    1;                       !- Field 15

Schedule:Compact,
    Sitting L-room schedule per pax,  !- Name
    Power,                   !- Schedule Type Limits Name
    Through: 12/31,          !- Field 1
    For: AllDays,            !- Field 2
    Until: 18:30,            !- Field 3
    0,                       !- Field 4
    Until: 20:00,            !- Field 5
    108,                     !- Field 6
    Until: 24:00,            !- Field 7
    0;                       !- Field 8

Schedule:Compact,
    Sitting C-room schedule per pax,  !- Name
    Power,                   !- Schedule Type Limits Name
    Through: 12/31,          !- Field 1
    For: AllDays,            !- Field 2
    Until: 20:30,            !- Field 3
    0,                       !- Field 4
    Until: 23:00,            !- Field 5
    108,                     !- Field 6
    Until: 24:00,            !- Field 7
    0;                       !- Field 8

Schedule:Compact,
    Sleeping Occ schedule,   !- Name
    Fraction,                !- Schedule Type Limits Name
    Through: 12/31,          !- Field 1
    For: Weekdays,           !- Field 2
    Until: 06:00,            !- Field 3
    1,                       !- Field 4
    Until: 23:30,            !- Field 5
    0,                       !- Field 6
    Until: 24:00,            !- Field 7
    1,                       !- Field 8
    For: Weekends,           !- Field 9
    Until: 06:00,            !- Field 10
    1,                       !- Field 11
    Until: 23:30,            !- Field 12
    0,                       !- Field 13
    Until: 24:00,            !- Field 14
    1;                       !- Field 15

Schedule:Compact,
    Sitting C-room Occ schedule,  !- Name
    Fraction,                !- Schedule Type Limits Name
    Through: 12/31,          !- Field 1
    For: AllDays,            !- Field 2
    Until: 20:30,            !- Field 3
    0,                       !- Field 4
    Until: 23:00,            !- Field 5
    1,                       !- Field 6
    Until: 24:00,            !- Field 7
    0;                       !- Field 8

Schedule:Compact,
    Cooling schedule,        !- Name
    On/Off,                  !- Schedule Type Limits Name
    Through: 12/31,          !- Field 1
    For: Weekdays,           !- Field 2
    Until: 06:00,            !- Field 3
    1,                       !- Field 4
    Until: 23:30,            !- Field 5
    0,                       !- Field 6
    Until: 24:00,            !- Field 7
    1,                       !- Field 8
    For: Weekends,           !- Field 9
    Until: 06:00,            !- Field 10
    1,                       !- Field 11
    Until: 23:30,            !- Field 12
    0,                       !- Field 13
    Until: 24:00,            !- Field 14
    1;                       !- Field 15

Schedule:Compact,
    Ventilation Schedule,    !- Name
    Fraction,                !- Schedule Type Limits Name
    Through: 12/31,          !- Field 1
    For: Weekdays,           !- Field 2
    Until: 06:00,            !- Field 3
    0,                       !- Field 4
    Until: 23:30,            !- Field 5
    1,                       !- Field 6
    Until: 24:00,            !- Field 7
    0,                       !- Field 8
    For: Weekends,           !- Field 9
    Until: 06:50,            !- Field 10
    0,                       !- Field 11
    Until: 23:30,            !- Field 12
    1,                       !- Field 13
    Until: 24:00,            !- Field 14
    0;                       !- Field 15

Schedule:Compact,
    Constant,                !- Name
    Any Number,              !- Schedule Type Limits Name
    Through: 12/31,          !- Field 1
    For: Alldays,            !- Field 2
    Until: 24:00,            !- Field 3
    1.00;                    !- Field 4

Schedule:Compact,
    Sitting L-room Occ schedule,  !- Name
    Fraction,                !- Schedule Type Limits Name
    Through: 12/31,          !- Field 1
    For: AllDays,            !- Field 2
    Until: 18:30,            !- Field 3
    0,                       !- Field 4
    Until: 20:00,            !- Field 5
    1,                       !- Field 6
    Until: 24:00,            !- Field 7
    0;                       !- Field 8

Schedule:Compact,
    NAC Ventilation Schedule,!- Name
    Fraction,                !- Schedule Type Limits Name
    Through: 12/31,          !- Field 1
    For: AllDays,            !- Field 2
    Until: 24:00,            !- Field 3
    1;                       !- Field 4

Schedule:Compact,
    AC Lighting Schedule,    !- Name
    Fraction,                !- Schedule Type Limits Name
    Through: 12/31,          !- Field 1
    For: Weekdays,           !- Field 2
    Until: 06:00,            !- Field 3
    0.0,                     !- Field 4
    Until: 07:00,            !- Field 5
    1,                       !- Field 6
    Until: 20:30,            !- Field 7
    0,                       !- Field 8
    Until: 23:30,            !- Field 9
    1,                       !- Field 10
    Until: 24:00,            !- Field 11
    0,                       !- Field 12
    For: Weekends,           !- Field 13
    Until: 06:50,            !- Field 14
    0,                       !- Field 15
    Until: 07:00,            !- Field 16
    1,                       !- Field 17
    Until: 20:30,            !- Field 18
    0,                       !- Field 19
    Until: 23:30 ,           !- Field 20
    1,                       !- Field 21
    Until: 24:00,            !- Field 22
    0;                       !- Field 23


!-   ===========  ALL OBJECTS IN CLASS: MATERIAL ===========

Material,
    M11 100mm lightweight concrete,  !- Name
    MediumRough,             !- Roughness
    0.1016,                  !- Thickness {m}
    0.53,                    !- Conductivity {W/m-K}
    1280,                    !- Density {kg/m3}
    840,                     !- Specific Heat {J/kg-K}
    0.9,                     !- Thermal Absorptance
    0.5,                     !- Solar Absorptance
    0.5;                     !- Visible Absorptance

Material,
    M15 150mm heavyweight concrete,  !- Name
    MediumRough,             !- Roughness
    0.15,                    !- Thickness {m}
    1.95,                    !- Conductivity {W/m-K}
    2240,                    !- Density {kg/m3}
    900,                     !- Specific Heat {J/kg-K}
    0.9,                     !- Thermal Absorptance
    0.7,                     !- Solar Absorptance
    0.7;                     !- Visible Absorptance

Material,
    Roof concrete,           !- Name
    MediumRough,             !- Roughness
    0.15,                    !- Thickness {m}
    1.442,                   !- Conductivity {W/m-K}
    2240,                    !- Density {kg/m3}
    900;                     !- Specific Heat {J/kg-K}

Material,
    Cement plaster,          !- Name
    MediumRough,             !- Roughness
    0.005,                   !- Thickness {m}
    0.533,                   !- Conductivity {W/m-K}
    1280,                    !- Density {kg/m3}
    840;                     !- Specific Heat {J/kg-K}

Material,
    Ferrocement,             !- Name
    MediumRough,             !- Roughness
    0.03,                    !- Thickness {m}
    0.836,                   !- Conductivity {W/m-K}
    1280,                    !- Density {kg/m3}
    900;                     !- Specific Heat {J/kg-K}

Material,
    Polyethylene,            !- Name
    MediumRough,             !- Roughness
    0.075,                   !- Thickness {m}
    0.024,                   !- Conductivity {W/m-K}
    24,                      !- Density {kg/m3}
    303;                     !- Specific Heat {J/kg-K}


!-   ===========  ALL OBJECTS IN CLASS: MATERIAL:AIRGAP ===========

Material:AirGap,
    F05 Ceiling air space resistance,  !- Name
    0.18;                    !- Thermal Resistance {m2-K/W}


!-   ===========  ALL OBJECTS IN CLASS: WINDOWMATERIAL:GLAZING ===========

WindowMaterial:Glazing,
    Clear 6mm,               !- Name
    SpectralAverage,         !- Optical Data Type
    ,                        !- Window Glass Spectral Data Set Name
    0.006,                   !- Thickness {m}
    0.837,                   !- Solar Transmittance at Normal Incidence
    0.075,                   !- Front Side Solar Reflectance at Normal Incidence
    0.075,                   !- Back Side Solar Reflectance at Normal Incidence
    0.898,                   !- Visible Transmittance at Normal Incidence
    0.081,                   !- Front Side Visible Reflectance at Normal Incidence
    0.081,                   !- Back Side Visible Reflectance at Normal Incidence
    0,                       !- Infrared Transmittance at Normal Incidence
    0.84,                    !- Front Side Infrared Hemispherical Emissivity
    0.84,                    !- Back Side Infrared Hemispherical Emissivity
    0.9;                     !- Conductivity {W/m-K}


!-   ===========  ALL OBJECTS IN CLASS: CONSTRUCTION ===========

Construction,
    Exterior Window,         !- Name
    Clear 6mm;               !- Outside Layer

Construction,
    Interior Ceiling,        !- Name
    M15 150mm heavyweight concrete;  !- Outside Layer

Construction,
    Interior Floor,          !- Name
    M15 150mm heavyweight concrete;  !- Outside Layer

Construction,
    Interior Wall,           !- Name
    M11 100mm lightweight concrete;  !- Outside Layer

Construction,
    Exterior Roof,           !- Name
    Ferrocement,             !- Outside Layer
    F05 Ceiling air space resistance,  !- Layer 2
    Roof concrete,           !- Layer 3
    Cement plaster;          !- Layer 4

Construction,
    Exterior Wall,           !- Name
    M15 150mm heavyweight concrete,  !- Outside Layer
    Polyethylene,            !- Layer 2
    Cement plaster;          !- Layer 3

Construction,
    Exterior Floor,          !- Name
    M15 150mm heavyweight concrete;  !- Outside Layer


!-   ===========  ALL OBJECTS IN CLASS: GLOBALGEOMETRYRULES ===========

GlobalGeometryRules,
    UpperLeftCorner,         !- Starting Vertex Position
    Counterclockwise,        !- Vertex Entry Direction
    Relative;                !- Coordinate System


!-   ===========  ALL OBJECTS IN CLASS: ZONE ===========

Zone,
    Gnd_5R_NAC,              !- Name
    0.0,                     !- Direction of Relative North {deg}
    60.412035,               !- X Origin {m}
    -77.129677,              !- Y Origin {m}
    0.0,                     !- Z Origin {m}
    ,                        !- Type
    3,                       !- Multiplier
    ,                        !- Ceiling Height {m}
    ,                        !- Volume {m3}
    43;                      !- Floor Area {m2}

Zone,
    Gnd_5R_NV,               !- Name
    0.0,                     !- Direction of Relative North {deg}
    72.603035,               !- X Origin {m}
    -65.330677,              !- Y Origin {m}
    0.0,                     !- Z Origin {m}
    ,                        !- Type
    3,                       !- Multiplier
    ,                        !- Ceiling Height {m}
    ,                        !- Volume {m3}
    94;                      !- Floor Area {m2}

Zone,
    Top_5R_NV,               !- Name
    0.0,                     !- Direction of Relative North {deg}
    72.603035,               !- X Origin {m}
    -65.330677,              !- Y Origin {m}
    0.0,                     !- Z Origin {m}
    ,                        !- Type
    3,                       !- Multiplier
    ,                        !- Ceiling Height {m}
    ,                        !- Volume {m3}
    94;                      !- Floor Area {m2}

Zone,
    Top_5R_AC,               !- Name
    0.0,                     !- Direction of Relative North {deg}
    60.412035,               !- X Origin {m}
    -77.129677,              !- Y Origin {m}
    0.0,                     !- Z Origin {m}
    ,                        !- Type
    3,                       !- Multiplier
    ,                        !- Ceiling Height {m}
    ,                        !- Volume {m3}
    43;                      !- Floor Area {m2}

Zone,
    Mid_5R_AC,               !- Name
    0.0,                     !- Direction of Relative North {deg}
    60.412035,               !- X Origin {m}
    -77.129677,              !- Y Origin {m}
    0.0,                     !- Z Origin {m}
    ,                        !- Type
    3,                       !- Multiplier
    ,                        !- Ceiling Height {m}
    ,                        !- Volume {m3}
    43;                      !- Floor Area {m2}

Zone,
    Mid_5R_NV,               !- Name
    0.0,                     !- Direction of Relative North {deg}
    72.603035,               !- X Origin {m}
    -65.330677,              !- Y Origin {m}
    0.0,                     !- Z Origin {m}
    ,                        !- Type
    3,                       !- Multiplier
    ,                        !- Ceiling Height {m}
    ,                        !- Volume {m3}
    94;                      !- Floor Area {m2}

Zone,
    Gnd_3R_NAC_Lft,          !- Name
    0.0,                     !- Direction of Relative North {deg}
    7.248959,                !- X Origin {m}
    -72.700497,              !- Y Origin {m}
    0.0,                     !- Z Origin {m}
    ,                        !- Type
    1,                       !- Multiplier
    ,                        !- Ceiling Height {m}
    ,                        !- Volume {m3}
    32;                      !- Floor Area {m2}

Zone,
    Gnd_3R_NV_Lft,           !- Name
    0.0,                     !- Direction of Relative North {deg}
    9.235959,                !- X Origin {m}
    -88.148497,              !- Y Origin {m}
    0.0,                     !- Z Origin {m}
    ,                        !- Type
    1,                       !- Multiplier
    ,                        !- Ceiling Height {m}
    ,                        !- Volume {m3}
    52;                      !- Floor Area {m2}

Zone,
    Gnd_3R_NV_Mid,           !- Name
    0.0,                     !- Direction of Relative North {deg}
    51.027959,               !- X Origin {m}
    -88.148497,              !- Y Origin {m}
    0.0,                     !- Z Origin {m}
    ,                        !- Type
    4,                       !- Multiplier
    ,                        !- Ceiling Height {m}
    ,                        !- Volume {m3}
    47;                      !- Floor Area {m2}

Zone,
    Gnd_3R_NAC_Mid,          !- Name
    0.0,                     !- Direction of Relative North {deg}
    56.014959,               !- X Origin {m}
    -74.224497,              !- Y Origin {m}
    0.0,                     !- Z Origin {m}
    ,                        !- Type
    4,                       !- Multiplier
    ,                        !- Ceiling Height {m}
    ,                        !- Volume {m3}
    27;                      !- Floor Area {m2}

Zone,
    Gnd_3R_NAC_Rht,          !- Name
    0.0,                     !- Direction of Relative North {deg}